ZCZC CL48
300930 UTC SEP 19
UKRAINE COASTAL WARNING 425/19 ODESA-NAVTEX
BLACK SEA AND SEA OF AZOV
INTERNAL SEAWATERS AND TERRITBRIAL SEA
OF UKRAINE AROUND THE CRIMEAN PENINSULA
AS WELL AS THE TERRITORY OF EXCLUSIVE
(MARITIME) ECONOMIC ZONE OF UKRAINE ALONG
THE CRIMEAN COASTLINE AND CONTINENTAL
SHELF OF UKRAINE ADJACENT TO THE CRIMEAN
COASTLINE ARE TEMPORARILY OCCUPIED
TERRITORIES
NNNN